synbols-dynalight, menu, latin, latin-ext
